
---------- Begin Simulation Statistics ----------
simSeconds                                   6.472385                       # Number of seconds simulated (Second)
simTicks                                 6472384832500                       # Number of ticks simulated (Tick)
finalTick                                6472384832500                       # Number of ticks from beginning of simulation (restored from checkpoints and never reset) (Tick)
simFreq                                  1000000000000                       # The number of ticks per simulated second ((Tick/Second))
hostSeconds                                   2809.90                       # Real time elapsed on the host (Second)
hostTickRate                               2303423090                       # The number of ticks simulated per host second (ticks/s) ((Tick/Second))
hostMemory                                     839304                       # Number of bytes of host memory used (Byte)
simInsts                                   1944257939                       # Number of instructions simulated (Count)
simOps                                     4217770649                       # Number of ops (including micro ops) simulated (Count)
hostInstRate                                   691932                       # Simulator instruction rate (inst/s) ((Count/Second))
hostOpRate                                    1501040                       # Simulator op (including micro ops) rate (op/s) ((Count/Second))
system.clk_domain.clock                          1000                       # Clock period in ticks (Tick)
system.cpu.numCycles                      12944769665                       # Number of cpu cycles simulated (Cycle)
system.cpu.cpi                               6.657940                       # CPI: cycles per instruction (core level) ((Cycle/Count))
system.cpu.ipc                               0.150197                       # IPC: instructions per cycle (core level) ((Count/Cycle))
system.cpu.numWorkItemsStarted                      0                       # Number of work items this cpu started (Count)
system.cpu.numWorkItemsCompleted                    0                       # Number of work items this cpu completed (Count)
system.cpu.commitStats0.numInsts           1944260625                       # Number of instructions committed (thread level) (Count)
system.cpu.commitStats0.numOps             4217852187                       # Number of ops (including micro ops) committed (thread level) (Count)
system.cpu.commitStats0.numInstsNotNOP              0                       # Number of instructions committed excluding NOPs or prefetches (Count)
system.cpu.commitStats0.numOpsNotNOP                0                       # Number of Ops (including micro ops) Simulated (Count)
system.cpu.commitStats0.cpi                  6.657940                       # CPI: cycles per instruction (thread level) ((Cycle/Count))
system.cpu.commitStats0.ipc                  0.150197                       # IPC: instructions per cycle (thread level) ((Count/Cycle))
system.cpu.commitStats0.numMemRefs                  0                       # Number of memory references committed (Count)
system.cpu.commitStats0.numFpInsts         3522679069                       # Number of float instructions (Count)
system.cpu.commitStats0.numIntInsts        1133602929                       # Number of integer instructions (Count)
system.cpu.commitStats0.numLoadInsts        468039716                       # Number of load instructions (Count)
system.cpu.commitStats0.numStoreInsts        17915325                       # Number of store instructions (Count)
system.cpu.commitStats0.numVecInsts                 0                       # Number of vector instructions (Count)
system.cpu.commitStats0.committedInstType::No_OpClass      6688455      0.16%      0.16% # Class of committed instruction. (Count)
system.cpu.commitStats0.committedInstType::IntAlu   1174735349     27.85%     28.01% # Class of committed instruction. (Count)
system.cpu.commitStats0.committedInstType::IntMult      2772286      0.07%     28.08% # Class of committed instruction. (Count)
system.cpu.commitStats0.committedInstType::IntDiv      1186972      0.03%     28.10% # Class of committed instruction. (Count)
system.cpu.commitStats0.committedInstType::FloatAdd    424718567     10.07%     38.17% # Class of committed instruction. (Count)
system.cpu.commitStats0.committedInstType::FloatCmp       451584      0.01%     38.18% # Class of committed instruction. (Count)
system.cpu.commitStats0.committedInstType::FloatCvt      1657936      0.04%     38.22% # Class of committed instruction. (Count)
system.cpu.commitStats0.committedInstType::FloatMult            0      0.00%     38.22% # Class of committed instruction. (Count)
system.cpu.commitStats0.committedInstType::FloatMultAcc            0      0.00%     38.22% # Class of committed instruction. (Count)
system.cpu.commitStats0.committedInstType::FloatDiv            0      0.00%     38.22% # Class of committed instruction. (Count)
system.cpu.commitStats0.committedInstType::FloatMisc            0      0.00%     38.22% # Class of committed instruction. (Count)
system.cpu.commitStats0.committedInstType::FloatSqrt       301056      0.01%     38.23% # Class of committed instruction. (Count)
system.cpu.commitStats0.committedInstType::SimdAdd         9088      0.00%     38.23% # Class of committed instruction. (Count)
system.cpu.commitStats0.committedInstType::SimdAddAcc            0      0.00%     38.23% # Class of committed instruction. (Count)
system.cpu.commitStats0.committedInstType::SimdAlu      1532412      0.04%     38.27% # Class of committed instruction. (Count)
system.cpu.commitStats0.committedInstType::SimdCmp            0      0.00%     38.27% # Class of committed instruction. (Count)
system.cpu.commitStats0.committedInstType::SimdCvt        20046      0.00%     38.27% # Class of committed instruction. (Count)
system.cpu.commitStats0.committedInstType::SimdMisc    420931277      9.98%     48.25% # Class of committed instruction. (Count)
system.cpu.commitStats0.committedInstType::SimdMult            0      0.00%     48.25% # Class of committed instruction. (Count)
system.cpu.commitStats0.committedInstType::SimdMultAcc            0      0.00%     48.25% # Class of committed instruction. (Count)
system.cpu.commitStats0.committedInstType::SimdMatMultAcc            0      0.00%     48.25% # Class of committed instruction. (Count)
system.cpu.commitStats0.committedInstType::SimdShift       456125      0.01%     48.26% # Class of committed instruction. (Count)
system.cpu.commitStats0.committedInstType::SimdShiftAcc            0      0.00%     48.26% # Class of committed instruction. (Count)
system.cpu.commitStats0.committedInstType::SimdDiv            0      0.00%     48.26% # Class of committed instruction. (Count)
system.cpu.commitStats0.committedInstType::SimdSqrt            0      0.00%     48.26% # Class of committed instruction. (Count)
system.cpu.commitStats0.committedInstType::SimdFloatAdd    840697421     19.93%     68.19% # Class of committed instruction. (Count)
system.cpu.commitStats0.committedInstType::SimdFloatAlu            0      0.00%     68.19% # Class of committed instruction. (Count)
system.cpu.commitStats0.committedInstType::SimdFloatCmp     14611948      0.35%     68.54% # Class of committed instruction. (Count)
system.cpu.commitStats0.committedInstType::SimdFloatCvt       302935      0.01%     68.54% # Class of committed instruction. (Count)
system.cpu.commitStats0.committedInstType::SimdFloatDiv       150577      0.00%     68.55% # Class of committed instruction. (Count)
system.cpu.commitStats0.committedInstType::SimdFloatMisc            0      0.00%     68.55% # Class of committed instruction. (Count)
system.cpu.commitStats0.committedInstType::SimdFloatMult    840673112     19.93%     88.48% # Class of committed instruction. (Count)
system.cpu.commitStats0.committedInstType::SimdFloatMultAcc            0      0.00%     88.48% # Class of committed instruction. (Count)
system.cpu.commitStats0.committedInstType::SimdFloatMatMultAcc            0      0.00%     88.48% # Class of committed instruction. (Count)
system.cpu.commitStats0.committedInstType::SimdFloatSqrt            0      0.00%     88.48% # Class of committed instruction. (Count)
system.cpu.commitStats0.committedInstType::SimdReduceAdd            0      0.00%     88.48% # Class of committed instruction. (Count)
system.cpu.commitStats0.committedInstType::SimdReduceAlu            0      0.00%     88.48% # Class of committed instruction. (Count)
system.cpu.commitStats0.committedInstType::SimdReduceCmp            0      0.00%     88.48% # Class of committed instruction. (Count)
system.cpu.commitStats0.committedInstType::SimdFloatReduceAdd            0      0.00%     88.48% # Class of committed instruction. (Count)
system.cpu.commitStats0.committedInstType::SimdFloatReduceCmp            0      0.00%     88.48% # Class of committed instruction. (Count)
system.cpu.commitStats0.committedInstType::SimdAes            0      0.00%     88.48% # Class of committed instruction. (Count)
system.cpu.commitStats0.committedInstType::SimdAesMix            0      0.00%     88.48% # Class of committed instruction. (Count)
system.cpu.commitStats0.committedInstType::SimdSha1Hash            0      0.00%     88.48% # Class of committed instruction. (Count)
system.cpu.commitStats0.committedInstType::SimdSha1Hash2            0      0.00%     88.48% # Class of committed instruction. (Count)
system.cpu.commitStats0.committedInstType::SimdSha256Hash            0      0.00%     88.48% # Class of committed instruction. (Count)
system.cpu.commitStats0.committedInstType::SimdSha256Hash2            0      0.00%     88.48% # Class of committed instruction. (Count)
system.cpu.commitStats0.committedInstType::SimdShaSigma2            0      0.00%     88.48% # Class of committed instruction. (Count)
system.cpu.commitStats0.committedInstType::SimdShaSigma3            0      0.00%     88.48% # Class of committed instruction. (Count)
system.cpu.commitStats0.committedInstType::SimdPredAlu            0      0.00%     88.48% # Class of committed instruction. (Count)
system.cpu.commitStats0.committedInstType::Matrix            0      0.00%     88.48% # Class of committed instruction. (Count)
system.cpu.commitStats0.committedInstType::MatrixMov            0      0.00%     88.48% # Class of committed instruction. (Count)
system.cpu.commitStats0.committedInstType::MatrixOP            0      0.00%     88.48% # Class of committed instruction. (Count)
system.cpu.commitStats0.committedInstType::MemRead     34795711      0.82%     89.30% # Class of committed instruction. (Count)
system.cpu.commitStats0.committedInstType::MemWrite      7537782      0.18%     89.48% # Class of committed instruction. (Count)
system.cpu.commitStats0.committedInstType::FloatMemRead    433244005     10.27%     99.75% # Class of committed instruction. (Count)
system.cpu.commitStats0.committedInstType::FloatMemWrite     10377543      0.25%    100.00% # Class of committed instruction. (Count)
system.cpu.commitStats0.committedInstType::IprAccess            0      0.00%    100.00% # Class of committed instruction. (Count)
system.cpu.commitStats0.committedInstType::InstPrefetch            0      0.00%    100.00% # Class of committed instruction. (Count)
system.cpu.commitStats0.committedInstType::VectorUnitStrideLoad            0      0.00%    100.00% # Class of committed instruction. (Count)
system.cpu.commitStats0.committedInstType::VectorUnitStrideStore            0      0.00%    100.00% # Class of committed instruction. (Count)
system.cpu.commitStats0.committedInstType::VectorUnitStrideMaskLoad            0      0.00%    100.00% # Class of committed instruction. (Count)
system.cpu.commitStats0.committedInstType::VectorUnitStrideMaskStore            0      0.00%    100.00% # Class of committed instruction. (Count)
system.cpu.commitStats0.committedInstType::VectorStridedLoad            0      0.00%    100.00% # Class of committed instruction. (Count)
system.cpu.commitStats0.committedInstType::VectorStridedStore            0      0.00%    100.00% # Class of committed instruction. (Count)
system.cpu.commitStats0.committedInstType::VectorIndexedLoad            0      0.00%    100.00% # Class of committed instruction. (Count)
system.cpu.commitStats0.committedInstType::VectorIndexedStore            0      0.00%    100.00% # Class of committed instruction. (Count)
system.cpu.commitStats0.committedInstType::VectorUnitStrideFaultOnlyFirstLoad            0      0.00%    100.00% # Class of committed instruction. (Count)
system.cpu.commitStats0.committedInstType::VectorWholeRegisterLoad            0      0.00%    100.00% # Class of committed instruction. (Count)
system.cpu.commitStats0.committedInstType::VectorWholeRegisterStore            0      0.00%    100.00% # Class of committed instruction. (Count)
system.cpu.commitStats0.committedInstType::VectorIntegerArith            0      0.00%    100.00% # Class of committed instruction. (Count)
system.cpu.commitStats0.committedInstType::VectorFloatArith            0      0.00%    100.00% # Class of committed instruction. (Count)
system.cpu.commitStats0.committedInstType::VectorFloatConvert            0      0.00%    100.00% # Class of committed instruction. (Count)
system.cpu.commitStats0.committedInstType::VectorIntegerReduce            0      0.00%    100.00% # Class of committed instruction. (Count)
system.cpu.commitStats0.committedInstType::VectorFloatReduce            0      0.00%    100.00% # Class of committed instruction. (Count)
system.cpu.commitStats0.committedInstType::VectorMisc            0      0.00%    100.00% # Class of committed instruction. (Count)
system.cpu.commitStats0.committedInstType::VectorIntegerExtension            0      0.00%    100.00% # Class of committed instruction. (Count)
system.cpu.commitStats0.committedInstType::VectorConfig            0      0.00%    100.00% # Class of committed instruction. (Count)
system.cpu.commitStats0.committedInstType::total   4217852187                       # Class of committed instruction. (Count)
system.cpu.commitStats0.committedControl::IsControl     69437171                       # Class of control type instructions committed (Count)
system.cpu.commitStats0.committedControl::IsDirectControl     68236444                       # Class of control type instructions committed (Count)
system.cpu.commitStats0.committedControl::IsIndirectControl      1200226                       # Class of control type instructions committed (Count)
system.cpu.commitStats0.committedControl::IsCondControl     65734655                       # Class of control type instructions committed (Count)
system.cpu.commitStats0.committedControl::IsUncondControl      3702015                       # Class of control type instructions committed (Count)
system.cpu.commitStats0.committedControl::IsCall       635589                       # Class of control type instructions committed (Count)
system.cpu.commitStats0.committedControl::IsReturn       635584                       # Class of control type instructions committed (Count)
system.cpu.dcache.demandHits::cpu.data      457924422                       # number of demand (read+write) hits (Count)
system.cpu.dcache.demandHits::total         457924422                       # number of demand (read+write) hits (Count)
system.cpu.dcache.overallHits::cpu.data     457924422                       # number of overall hits (Count)
system.cpu.dcache.overallHits::total        457924422                       # number of overall hits (Count)
system.cpu.dcache.demandMisses::cpu.data     27973815                       # number of demand (read+write) misses (Count)
system.cpu.dcache.demandMisses::total        27973815                       # number of demand (read+write) misses (Count)
system.cpu.dcache.overallMisses::cpu.data     27973815                       # number of overall misses (Count)
system.cpu.dcache.overallMisses::total       27973815                       # number of overall misses (Count)
system.cpu.dcache.demandMissLatency::cpu.data 3086461571000                       # number of demand (read+write) miss ticks (Tick)
system.cpu.dcache.demandMissLatency::total 3086461571000                       # number of demand (read+write) miss ticks (Tick)
system.cpu.dcache.overallMissLatency::cpu.data 3086461571000                       # number of overall miss ticks (Tick)
system.cpu.dcache.overallMissLatency::total 3086461571000                       # number of overall miss ticks (Tick)
system.cpu.dcache.demandAccesses::cpu.data    485898237                       # number of demand (read+write) accesses (Count)
system.cpu.dcache.demandAccesses::total     485898237                       # number of demand (read+write) accesses (Count)
system.cpu.dcache.overallAccesses::cpu.data    485898237                       # number of overall (read+write) accesses (Count)
system.cpu.dcache.overallAccesses::total    485898237                       # number of overall (read+write) accesses (Count)
system.cpu.dcache.demandMissRate::cpu.data     0.057571                       # miss rate for demand accesses (Ratio)
system.cpu.dcache.demandMissRate::total      0.057571                       # miss rate for demand accesses (Ratio)
system.cpu.dcache.overallMissRate::cpu.data     0.057571                       # miss rate for overall accesses (Ratio)
system.cpu.dcache.overallMissRate::total     0.057571                       # miss rate for overall accesses (Ratio)
system.cpu.dcache.demandAvgMissLatency::cpu.data 110333.952341                       # average overall miss latency in ticks ((Tick/Count))
system.cpu.dcache.demandAvgMissLatency::total 110333.952341                       # average overall miss latency in ticks ((Tick/Count))
system.cpu.dcache.overallAvgMissLatency::cpu.data 110333.952341                       # average overall miss latency ((Tick/Count))
system.cpu.dcache.overallAvgMissLatency::total 110333.952341                       # average overall miss latency ((Tick/Count))
system.cpu.dcache.blockedCycles::no_mshrs            0                       # number of cycles access was blocked (Cycle)
system.cpu.dcache.blockedCycles::no_targets            0                       # number of cycles access was blocked (Cycle)
system.cpu.dcache.blockedCauses::no_mshrs            0                       # number of times access was blocked (Count)
system.cpu.dcache.blockedCauses::no_targets            0                       # number of times access was blocked (Count)
system.cpu.dcache.avgBlocked::no_mshrs            nan                       # average number of cycles each access was blocked ((Cycle/Count))
system.cpu.dcache.avgBlocked::no_targets          nan                       # average number of cycles each access was blocked ((Cycle/Count))
system.cpu.dcache.writebacks::writebacks      1338194                       # number of writebacks (Count)
system.cpu.dcache.writebacks::total           1338194                       # number of writebacks (Count)
system.cpu.dcache.demandMshrMisses::cpu.data     27973815                       # number of demand (read+write) MSHR misses (Count)
system.cpu.dcache.demandMshrMisses::total     27973815                       # number of demand (read+write) MSHR misses (Count)
system.cpu.dcache.overallMshrMisses::cpu.data     27973815                       # number of overall MSHR misses (Count)
system.cpu.dcache.overallMshrMisses::total     27973815                       # number of overall MSHR misses (Count)
system.cpu.dcache.demandMshrMissLatency::cpu.data 3058487756000                       # number of demand (read+write) MSHR miss ticks (Tick)
system.cpu.dcache.demandMshrMissLatency::total 3058487756000                       # number of demand (read+write) MSHR miss ticks (Tick)
system.cpu.dcache.overallMshrMissLatency::cpu.data 3058487756000                       # number of overall MSHR miss ticks (Tick)
system.cpu.dcache.overallMshrMissLatency::total 3058487756000                       # number of overall MSHR miss ticks (Tick)
system.cpu.dcache.demandMshrMissRate::cpu.data     0.057571                       # mshr miss ratio for demand accesses (Ratio)
system.cpu.dcache.demandMshrMissRate::total     0.057571                       # mshr miss ratio for demand accesses (Ratio)
system.cpu.dcache.overallMshrMissRate::cpu.data     0.057571                       # mshr miss ratio for overall accesses (Ratio)
system.cpu.dcache.overallMshrMissRate::total     0.057571                       # mshr miss ratio for overall accesses (Ratio)
system.cpu.dcache.demandAvgMshrMissLatency::cpu.data 109333.952341                       # average overall mshr miss latency ((Tick/Count))
system.cpu.dcache.demandAvgMshrMissLatency::total 109333.952341                       # average overall mshr miss latency ((Tick/Count))
system.cpu.dcache.overallAvgMshrMissLatency::cpu.data 109333.952341                       # average overall mshr miss latency ((Tick/Count))
system.cpu.dcache.overallAvgMshrMissLatency::total 109333.952341                       # average overall mshr miss latency ((Tick/Count))
system.cpu.dcache.replacements               27973309                       # number of replacements (Count)
system.cpu.dcache.LockedRMWReadReq.hits::cpu.data         1248                       # number of LockedRMWReadReq hits (Count)
system.cpu.dcache.LockedRMWReadReq.hits::total         1248                       # number of LockedRMWReadReq hits (Count)
system.cpu.dcache.LockedRMWReadReq.misses::cpu.data            6                       # number of LockedRMWReadReq misses (Count)
system.cpu.dcache.LockedRMWReadReq.misses::total            6                       # number of LockedRMWReadReq misses (Count)
system.cpu.dcache.LockedRMWReadReq.missLatency::cpu.data      1938000                       # number of LockedRMWReadReq miss ticks (Tick)
system.cpu.dcache.LockedRMWReadReq.missLatency::total      1938000                       # number of LockedRMWReadReq miss ticks (Tick)
system.cpu.dcache.LockedRMWReadReq.accesses::cpu.data         1254                       # number of LockedRMWReadReq accesses(hits+misses) (Count)
system.cpu.dcache.LockedRMWReadReq.accesses::total         1254                       # number of LockedRMWReadReq accesses(hits+misses) (Count)
system.cpu.dcache.LockedRMWReadReq.missRate::cpu.data     0.004785                       # miss rate for LockedRMWReadReq accesses (Ratio)
system.cpu.dcache.LockedRMWReadReq.missRate::total     0.004785                       # miss rate for LockedRMWReadReq accesses (Ratio)
system.cpu.dcache.LockedRMWReadReq.avgMissLatency::cpu.data       323000                       # average LockedRMWReadReq miss latency ((Tick/Count))
system.cpu.dcache.LockedRMWReadReq.avgMissLatency::total       323000                       # average LockedRMWReadReq miss latency ((Tick/Count))
system.cpu.dcache.LockedRMWReadReq.mshrMisses::cpu.data            6                       # number of LockedRMWReadReq MSHR misses (Count)
system.cpu.dcache.LockedRMWReadReq.mshrMisses::total            6                       # number of LockedRMWReadReq MSHR misses (Count)
system.cpu.dcache.LockedRMWReadReq.mshrMissLatency::cpu.data      5118000                       # number of LockedRMWReadReq MSHR miss ticks (Tick)
system.cpu.dcache.LockedRMWReadReq.mshrMissLatency::total      5118000                       # number of LockedRMWReadReq MSHR miss ticks (Tick)
system.cpu.dcache.LockedRMWReadReq.mshrMissRate::cpu.data     0.004785                       # mshr miss rate for LockedRMWReadReq accesses (Ratio)
system.cpu.dcache.LockedRMWReadReq.mshrMissRate::total     0.004785                       # mshr miss rate for LockedRMWReadReq accesses (Ratio)
system.cpu.dcache.LockedRMWReadReq.avgMshrMissLatency::cpu.data       853000                       # average LockedRMWReadReq mshr miss latency ((Tick/Count))
system.cpu.dcache.LockedRMWReadReq.avgMshrMissLatency::total       853000                       # average LockedRMWReadReq mshr miss latency ((Tick/Count))
system.cpu.dcache.LockedRMWWriteReq.hits::cpu.data         1254                       # number of LockedRMWWriteReq hits (Count)
system.cpu.dcache.LockedRMWWriteReq.hits::total         1254                       # number of LockedRMWWriteReq hits (Count)
system.cpu.dcache.LockedRMWWriteReq.accesses::cpu.data         1254                       # number of LockedRMWWriteReq accesses(hits+misses) (Count)
system.cpu.dcache.LockedRMWWriteReq.accesses::total         1254                       # number of LockedRMWWriteReq accesses(hits+misses) (Count)
system.cpu.dcache.ReadReq.hits::cpu.data    441344943                       # number of ReadReq hits (Count)
system.cpu.dcache.ReadReq.hits::total       441344943                       # number of ReadReq hits (Count)
system.cpu.dcache.ReadReq.misses::cpu.data     26708170                       # number of ReadReq misses (Count)
system.cpu.dcache.ReadReq.misses::total      26708170                       # number of ReadReq misses (Count)
system.cpu.dcache.ReadReq.missLatency::cpu.data 2499125894500                       # number of ReadReq miss ticks (Tick)
system.cpu.dcache.ReadReq.missLatency::total 2499125894500                       # number of ReadReq miss ticks (Tick)
system.cpu.dcache.ReadReq.accesses::cpu.data    468053113                       # number of ReadReq accesses(hits+misses) (Count)
system.cpu.dcache.ReadReq.accesses::total    468053113                       # number of ReadReq accesses(hits+misses) (Count)
system.cpu.dcache.ReadReq.missRate::cpu.data     0.057062                       # miss rate for ReadReq accesses (Ratio)
system.cpu.dcache.ReadReq.missRate::total     0.057062                       # miss rate for ReadReq accesses (Ratio)
system.cpu.dcache.ReadReq.avgMissLatency::cpu.data 93571.588563                       # average ReadReq miss latency ((Tick/Count))
system.cpu.dcache.ReadReq.avgMissLatency::total 93571.588563                       # average ReadReq miss latency ((Tick/Count))
system.cpu.dcache.ReadReq.mshrMisses::cpu.data     26708170                       # number of ReadReq MSHR misses (Count)
system.cpu.dcache.ReadReq.mshrMisses::total     26708170                       # number of ReadReq MSHR misses (Count)
system.cpu.dcache.ReadReq.mshrMissLatency::cpu.data 2472417724500                       # number of ReadReq MSHR miss ticks (Tick)
system.cpu.dcache.ReadReq.mshrMissLatency::total 2472417724500                       # number of ReadReq MSHR miss ticks (Tick)
system.cpu.dcache.ReadReq.mshrMissRate::cpu.data     0.057062                       # mshr miss rate for ReadReq accesses (Ratio)
system.cpu.dcache.ReadReq.mshrMissRate::total     0.057062                       # mshr miss rate for ReadReq accesses (Ratio)
system.cpu.dcache.ReadReq.avgMshrMissLatency::cpu.data 92571.588563                       # average ReadReq mshr miss latency ((Tick/Count))
system.cpu.dcache.ReadReq.avgMshrMissLatency::total 92571.588563                       # average ReadReq mshr miss latency ((Tick/Count))
system.cpu.dcache.WriteReq.hits::cpu.data     16579479                       # number of WriteReq hits (Count)
system.cpu.dcache.WriteReq.hits::total       16579479                       # number of WriteReq hits (Count)
system.cpu.dcache.WriteReq.misses::cpu.data      1265645                       # number of WriteReq misses (Count)
system.cpu.dcache.WriteReq.misses::total      1265645                       # number of WriteReq misses (Count)
system.cpu.dcache.WriteReq.missLatency::cpu.data 587335676500                       # number of WriteReq miss ticks (Tick)
system.cpu.dcache.WriteReq.missLatency::total 587335676500                       # number of WriteReq miss ticks (Tick)
system.cpu.dcache.WriteReq.accesses::cpu.data     17845124                       # number of WriteReq accesses(hits+misses) (Count)
system.cpu.dcache.WriteReq.accesses::total     17845124                       # number of WriteReq accesses(hits+misses) (Count)
system.cpu.dcache.WriteReq.missRate::cpu.data     0.070924                       # miss rate for WriteReq accesses (Ratio)
system.cpu.dcache.WriteReq.missRate::total     0.070924                       # miss rate for WriteReq accesses (Ratio)
system.cpu.dcache.WriteReq.avgMissLatency::cpu.data 464060.361713                       # average WriteReq miss latency ((Tick/Count))
system.cpu.dcache.WriteReq.avgMissLatency::total 464060.361713                       # average WriteReq miss latency ((Tick/Count))
system.cpu.dcache.WriteReq.mshrMisses::cpu.data      1265645                       # number of WriteReq MSHR misses (Count)
system.cpu.dcache.WriteReq.mshrMisses::total      1265645                       # number of WriteReq MSHR misses (Count)
system.cpu.dcache.WriteReq.mshrMissLatency::cpu.data 586070031500                       # number of WriteReq MSHR miss ticks (Tick)
system.cpu.dcache.WriteReq.mshrMissLatency::total 586070031500                       # number of WriteReq MSHR miss ticks (Tick)
system.cpu.dcache.WriteReq.mshrMissRate::cpu.data     0.070924                       # mshr miss rate for WriteReq accesses (Ratio)
system.cpu.dcache.WriteReq.mshrMissRate::total     0.070924                       # mshr miss rate for WriteReq accesses (Ratio)
system.cpu.dcache.WriteReq.avgMshrMissLatency::cpu.data 463060.361713                       # average WriteReq mshr miss latency ((Tick/Count))
system.cpu.dcache.WriteReq.avgMshrMissLatency::total 463060.361713                       # average WriteReq mshr miss latency ((Tick/Count))
system.cpu.dcache.power_state.pwrStateResidencyTicks::UNDEFINED 6472384832500                       # Cumulative time (in ticks) in various power states (Tick)
system.cpu.dcache.tags.tagsInUse           511.984612                       # Average ticks per tags in use ((Tick/Count))
system.cpu.dcache.tags.totalRefs            485900745                       # Total number of references to valid blocks. (Count)
system.cpu.dcache.tags.sampledRefs           27973821                       # Sample count of references to valid blocks. (Count)
system.cpu.dcache.tags.avgRefs              17.369838                       # Average number of references to valid blocks. ((Count/Count))
system.cpu.dcache.tags.warmupTick              770500                       # The tick when the warmup percentage was hit. (Tick)
system.cpu.dcache.tags.occupancies::cpu.data   511.984612                       # Average occupied blocks per tick, per requestor ((Count/Tick))
system.cpu.dcache.tags.avgOccs::cpu.data     0.999970                       # Average percentage of cache occupancy ((Ratio/Tick))
system.cpu.dcache.tags.avgOccs::total        0.999970                       # Average percentage of cache occupancy ((Ratio/Tick))
system.cpu.dcache.tags.occupanciesTaskId::1024          512                       # Occupied blocks per task id (Count)
system.cpu.dcache.tags.ageTaskId_1024::0            9                       # Occupied blocks per task id, per block age (Count)
system.cpu.dcache.tags.ageTaskId_1024::1          117                       # Occupied blocks per task id, per block age (Count)
system.cpu.dcache.tags.ageTaskId_1024::2          376                       # Occupied blocks per task id, per block age (Count)
system.cpu.dcache.tags.ageTaskId_1024::3           10                       # Occupied blocks per task id, per block age (Count)
system.cpu.dcache.tags.ratioOccsTaskId::1024            1                       # Ratio of occupied blocks and all blocks, per task id (Ratio)
system.cpu.dcache.tags.tagAccesses         3915179781                       # Number of tag accesses (Count)
system.cpu.dcache.tags.dataAccesses        3915179781                       # Number of data accesses (Count)
system.cpu.dcache.tags.power_state.pwrStateResidencyTicks::UNDEFINED 6472384832500                       # Cumulative time (in ticks) in various power states (Tick)
system.cpu.dtb_walker_cache.blockedCycles::no_mshrs            0                       # number of cycles access was blocked (Cycle)
system.cpu.dtb_walker_cache.blockedCycles::no_targets            0                       # number of cycles access was blocked (Cycle)
system.cpu.dtb_walker_cache.blockedCauses::no_mshrs            0                       # number of times access was blocked (Count)
system.cpu.dtb_walker_cache.blockedCauses::no_targets            0                       # number of times access was blocked (Count)
system.cpu.dtb_walker_cache.avgBlocked::no_mshrs          nan                       # average number of cycles each access was blocked ((Cycle/Count))
system.cpu.dtb_walker_cache.avgBlocked::no_targets          nan                       # average number of cycles each access was blocked ((Cycle/Count))
system.cpu.dtb_walker_cache.replacements            0                       # number of replacements (Count)
system.cpu.dtb_walker_cache.power_state.pwrStateResidencyTicks::UNDEFINED 6472384832500                       # Cumulative time (in ticks) in various power states (Tick)
system.cpu.dtb_walker_cache.tags.tagsInUse            0                       # Average ticks per tags in use ((Tick/Count))
system.cpu.dtb_walker_cache.tags.totalRefs            0                       # Total number of references to valid blocks. (Count)
system.cpu.dtb_walker_cache.tags.sampledRefs            0                       # Sample count of references to valid blocks. (Count)
system.cpu.dtb_walker_cache.tags.avgRefs          nan                       # Average number of references to valid blocks. ((Count/Count))
system.cpu.dtb_walker_cache.tags.warmupTick            0                       # The tick when the warmup percentage was hit. (Tick)
system.cpu.dtb_walker_cache.tags.tagAccesses            0                       # Number of tag accesses (Count)
system.cpu.dtb_walker_cache.tags.dataAccesses            0                       # Number of data accesses (Count)
system.cpu.dtb_walker_cache.tags.power_state.pwrStateResidencyTicks::UNDEFINED 6472384832500                       # Cumulative time (in ticks) in various power states (Tick)
system.cpu.exec_context.thread_0.numMatAluAccesses            0                       # Number of matrix alu accesses (Count)
system.cpu.exec_context.thread_0.numCallsReturns      1271173                       # Number of times a function call or return occured (Count)
system.cpu.exec_context.thread_0.numMatInsts            0                       # Number of matrix instructions (Count)
system.cpu.exec_context.thread_0.numIdleCycles     0.002001                       # Number of idle cycles (Cycle)
system.cpu.exec_context.thread_0.numBusyCycles 12944769664.997999                       # Number of busy cycles (Cycle)
system.cpu.exec_context.thread_0.notIdleFraction     1.000000                       # Percentage of non-idle cycles (Ratio)
system.cpu.exec_context.thread_0.idleFraction     0.000000                       # Percentage of idle cycles (Ratio)
system.cpu.executeStats0.numInsts                   0                       # Number of executed instructions (Count)
system.cpu.executeStats0.numNop                     0                       # Number of nop insts executed (Count)
system.cpu.executeStats0.numBranches                0                       # Number of branches executed (Count)
system.cpu.executeStats0.numLoadInsts               0                       # Number of load instructions executed (Count)
system.cpu.executeStats0.numStoreInsts      485955041                       # Number of stores executed (Count)
system.cpu.executeStats0.instRate                   0                       # Inst execution rate ((Count/Cycle))
system.cpu.executeStats0.numFpAluAccesses   3522679069                       # Number of float alu accesses (Count)
system.cpu.executeStats0.numFpRegReads     7434998994                       # Number of times the floating registers were read (Count)
system.cpu.executeStats0.numFpRegWrites    3510027199                       # Number of times the floating registers were written (Count)
system.cpu.executeStats0.numIntAluAccesses   1133602929                       # Number of integer alu accesses (Count)
system.cpu.executeStats0.numIntRegReads    1767053069                       # Number of times the integer registers were read (Count)
system.cpu.executeStats0.numIntRegWrites    535985720                       # Number of times the integer registers were written (Count)
system.cpu.executeStats0.numMemRefs         485955041                       # Number of memory refs (Count)
system.cpu.executeStats0.numMiscRegReads    633864217                       # Number of times the Misc registers were read (Count)
system.cpu.executeStats0.numMiscRegWrites      8129901                       # Number of times the Misc registers were written (Count)
system.cpu.executeStats0.numVecAluAccesses            0                       # Number of vector alu accesses (Count)
system.cpu.executeStats0.numDiscardedOps            0                       # Number of ops (including micro ops) which were discarded before commit (Count)
system.cpu.fetchStats0.numInsts            1944260625                       # Number of instructions fetched (thread level) (Count)
system.cpu.fetchStats0.numOps              4217852187                       # Number of ops (including micro ops) fetched (thread level) (Count)
system.cpu.fetchStats0.fetchRate             0.150197                       # Number of inst fetches per cycle ((Count/Cycle))
system.cpu.fetchStats0.numBranches           69437171                       # Number of branches fetched (Count)
system.cpu.fetchStats0.branchRate            0.005364                       # Number of branch fetches per cycle (Ratio)
system.cpu.fetchStats0.numFetchSuspends             0                       # Number of times Execute suspended instruction fetching (Count)
system.cpu.icache.demandHits::cpu.inst     2924280838                       # number of demand (read+write) hits (Count)
system.cpu.icache.demandHits::total        2924280838                       # number of demand (read+write) hits (Count)
system.cpu.icache.overallHits::cpu.inst    2924280838                       # number of overall hits (Count)
system.cpu.icache.overallHits::total       2924280838                       # number of overall hits (Count)
system.cpu.icache.demandMisses::cpu.inst        14069                       # number of demand (read+write) misses (Count)
system.cpu.icache.demandMisses::total           14069                       # number of demand (read+write) misses (Count)
system.cpu.icache.overallMisses::cpu.inst        14069                       # number of overall misses (Count)
system.cpu.icache.overallMisses::total          14069                       # number of overall misses (Count)
system.cpu.icache.demandMissLatency::cpu.inst   3827395500                       # number of demand (read+write) miss ticks (Tick)
system.cpu.icache.demandMissLatency::total   3827395500                       # number of demand (read+write) miss ticks (Tick)
system.cpu.icache.overallMissLatency::cpu.inst   3827395500                       # number of overall miss ticks (Tick)
system.cpu.icache.overallMissLatency::total   3827395500                       # number of overall miss ticks (Tick)
system.cpu.icache.demandAccesses::cpu.inst   2924294907                       # number of demand (read+write) accesses (Count)
system.cpu.icache.demandAccesses::total    2924294907                       # number of demand (read+write) accesses (Count)
system.cpu.icache.overallAccesses::cpu.inst   2924294907                       # number of overall (read+write) accesses (Count)
system.cpu.icache.overallAccesses::total   2924294907                       # number of overall (read+write) accesses (Count)
system.cpu.icache.demandMissRate::cpu.inst     0.000005                       # miss rate for demand accesses (Ratio)
system.cpu.icache.demandMissRate::total      0.000005                       # miss rate for demand accesses (Ratio)
system.cpu.icache.overallMissRate::cpu.inst     0.000005                       # miss rate for overall accesses (Ratio)
system.cpu.icache.overallMissRate::total     0.000005                       # miss rate for overall accesses (Ratio)
system.cpu.icache.demandAvgMissLatency::cpu.inst 272044.601606                       # average overall miss latency in ticks ((Tick/Count))
system.cpu.icache.demandAvgMissLatency::total 272044.601606                       # average overall miss latency in ticks ((Tick/Count))
system.cpu.icache.overallAvgMissLatency::cpu.inst 272044.601606                       # average overall miss latency ((Tick/Count))
system.cpu.icache.overallAvgMissLatency::total 272044.601606                       # average overall miss latency ((Tick/Count))
system.cpu.icache.blockedCycles::no_mshrs            0                       # number of cycles access was blocked (Cycle)
system.cpu.icache.blockedCycles::no_targets            0                       # number of cycles access was blocked (Cycle)
system.cpu.icache.blockedCauses::no_mshrs            0                       # number of times access was blocked (Count)
system.cpu.icache.blockedCauses::no_targets            0                       # number of times access was blocked (Count)
system.cpu.icache.avgBlocked::no_mshrs            nan                       # average number of cycles each access was blocked ((Cycle/Count))
system.cpu.icache.avgBlocked::no_targets          nan                       # average number of cycles each access was blocked ((Cycle/Count))
system.cpu.icache.writebacks::writebacks        13557                       # number of writebacks (Count)
system.cpu.icache.writebacks::total             13557                       # number of writebacks (Count)
system.cpu.icache.demandMshrMisses::cpu.inst        14069                       # number of demand (read+write) MSHR misses (Count)
system.cpu.icache.demandMshrMisses::total        14069                       # number of demand (read+write) MSHR misses (Count)
system.cpu.icache.overallMshrMisses::cpu.inst        14069                       # number of overall MSHR misses (Count)
system.cpu.icache.overallMshrMisses::total        14069                       # number of overall MSHR misses (Count)
system.cpu.icache.demandMshrMissLatency::cpu.inst   3813326500                       # number of demand (read+write) MSHR miss ticks (Tick)
system.cpu.icache.demandMshrMissLatency::total   3813326500                       # number of demand (read+write) MSHR miss ticks (Tick)
system.cpu.icache.overallMshrMissLatency::cpu.inst   3813326500                       # number of overall MSHR miss ticks (Tick)
system.cpu.icache.overallMshrMissLatency::total   3813326500                       # number of overall MSHR miss ticks (Tick)
system.cpu.icache.demandMshrMissRate::cpu.inst     0.000005                       # mshr miss ratio for demand accesses (Ratio)
system.cpu.icache.demandMshrMissRate::total     0.000005                       # mshr miss ratio for demand accesses (Ratio)
system.cpu.icache.overallMshrMissRate::cpu.inst     0.000005                       # mshr miss ratio for overall accesses (Ratio)
system.cpu.icache.overallMshrMissRate::total     0.000005                       # mshr miss ratio for overall accesses (Ratio)
system.cpu.icache.demandAvgMshrMissLatency::cpu.inst 271044.601606                       # average overall mshr miss latency ((Tick/Count))
system.cpu.icache.demandAvgMshrMissLatency::total 271044.601606                       # average overall mshr miss latency ((Tick/Count))
system.cpu.icache.overallAvgMshrMissLatency::cpu.inst 271044.601606                       # average overall mshr miss latency ((Tick/Count))
system.cpu.icache.overallAvgMshrMissLatency::total 271044.601606                       # average overall mshr miss latency ((Tick/Count))
system.cpu.icache.replacements                  13557                       # number of replacements (Count)
system.cpu.icache.ReadReq.hits::cpu.inst   2924280838                       # number of ReadReq hits (Count)
system.cpu.icache.ReadReq.hits::total      2924280838                       # number of ReadReq hits (Count)
system.cpu.icache.ReadReq.misses::cpu.inst        14069                       # number of ReadReq misses (Count)
system.cpu.icache.ReadReq.misses::total         14069                       # number of ReadReq misses (Count)
system.cpu.icache.ReadReq.missLatency::cpu.inst   3827395500                       # number of ReadReq miss ticks (Tick)
system.cpu.icache.ReadReq.missLatency::total   3827395500                       # number of ReadReq miss ticks (Tick)
system.cpu.icache.ReadReq.accesses::cpu.inst   2924294907                       # number of ReadReq accesses(hits+misses) (Count)
system.cpu.icache.ReadReq.accesses::total   2924294907                       # number of ReadReq accesses(hits+misses) (Count)
system.cpu.icache.ReadReq.missRate::cpu.inst     0.000005                       # miss rate for ReadReq accesses (Ratio)
system.cpu.icache.ReadReq.missRate::total     0.000005                       # miss rate for ReadReq accesses (Ratio)
system.cpu.icache.ReadReq.avgMissLatency::cpu.inst 272044.601606                       # average ReadReq miss latency ((Tick/Count))
system.cpu.icache.ReadReq.avgMissLatency::total 272044.601606                       # average ReadReq miss latency ((Tick/Count))
system.cpu.icache.ReadReq.mshrMisses::cpu.inst        14069                       # number of ReadReq MSHR misses (Count)
system.cpu.icache.ReadReq.mshrMisses::total        14069                       # number of ReadReq MSHR misses (Count)
system.cpu.icache.ReadReq.mshrMissLatency::cpu.inst   3813326500                       # number of ReadReq MSHR miss ticks (Tick)
system.cpu.icache.ReadReq.mshrMissLatency::total   3813326500                       # number of ReadReq MSHR miss ticks (Tick)
system.cpu.icache.ReadReq.mshrMissRate::cpu.inst     0.000005                       # mshr miss rate for ReadReq accesses (Ratio)
system.cpu.icache.ReadReq.mshrMissRate::total     0.000005                       # mshr miss rate for ReadReq accesses (Ratio)
system.cpu.icache.ReadReq.avgMshrMissLatency::cpu.inst 271044.601606                       # average ReadReq mshr miss latency ((Tick/Count))
system.cpu.icache.ReadReq.avgMshrMissLatency::total 271044.601606                       # average ReadReq mshr miss latency ((Tick/Count))
system.cpu.icache.power_state.pwrStateResidencyTicks::UNDEFINED 6472384832500                       # Cumulative time (in ticks) in various power states (Tick)
system.cpu.icache.tags.tagsInUse           511.984514                       # Average ticks per tags in use ((Tick/Count))
system.cpu.icache.tags.totalRefs           2924294907                       # Total number of references to valid blocks. (Count)
system.cpu.icache.tags.sampledRefs              14069                       # Sample count of references to valid blocks. (Count)
system.cpu.icache.tags.avgRefs           207853.785415                       # Average number of references to valid blocks. ((Count/Count))
system.cpu.icache.tags.warmupTick              384500                       # The tick when the warmup percentage was hit. (Tick)
system.cpu.icache.tags.occupancies::cpu.inst   511.984514                       # Average occupied blocks per tick, per requestor ((Count/Tick))
system.cpu.icache.tags.avgOccs::cpu.inst     0.999970                       # Average percentage of cache occupancy ((Ratio/Tick))
system.cpu.icache.tags.avgOccs::total        0.999970                       # Average percentage of cache occupancy ((Ratio/Tick))
system.cpu.icache.tags.occupanciesTaskId::1024          512                       # Occupied blocks per task id (Count)
system.cpu.icache.tags.ageTaskId_1024::0           26                       # Occupied blocks per task id, per block age (Count)
system.cpu.icache.tags.ageTaskId_1024::1          106                       # Occupied blocks per task id, per block age (Count)
system.cpu.icache.tags.ageTaskId_1024::2          291                       # Occupied blocks per task id, per block age (Count)
system.cpu.icache.tags.ageTaskId_1024::3           30                       # Occupied blocks per task id, per block age (Count)
system.cpu.icache.tags.ageTaskId_1024::4           59                       # Occupied blocks per task id, per block age (Count)
system.cpu.icache.tags.ratioOccsTaskId::1024            1                       # Ratio of occupied blocks and all blocks, per task id (Ratio)
system.cpu.icache.tags.tagAccesses        23394373325                       # Number of tag accesses (Count)
system.cpu.icache.tags.dataAccesses       23394373325                       # Number of data accesses (Count)
system.cpu.icache.tags.power_state.pwrStateResidencyTicks::UNDEFINED 6472384832500                       # Cumulative time (in ticks) in various power states (Tick)
system.cpu.interrupts.clk_domain.clock           8000                       # Clock period in ticks (Tick)
system.cpu.itb_walker_cache.blockedCycles::no_mshrs            0                       # number of cycles access was blocked (Cycle)
system.cpu.itb_walker_cache.blockedCycles::no_targets            0                       # number of cycles access was blocked (Cycle)
system.cpu.itb_walker_cache.blockedCauses::no_mshrs            0                       # number of times access was blocked (Count)
system.cpu.itb_walker_cache.blockedCauses::no_targets            0                       # number of times access was blocked (Count)
system.cpu.itb_walker_cache.avgBlocked::no_mshrs          nan                       # average number of cycles each access was blocked ((Cycle/Count))
system.cpu.itb_walker_cache.avgBlocked::no_targets          nan                       # average number of cycles each access was blocked ((Cycle/Count))
system.cpu.itb_walker_cache.replacements            0                       # number of replacements (Count)
system.cpu.itb_walker_cache.power_state.pwrStateResidencyTicks::UNDEFINED 6472384832500                       # Cumulative time (in ticks) in various power states (Tick)
system.cpu.itb_walker_cache.tags.tagsInUse            0                       # Average ticks per tags in use ((Tick/Count))
system.cpu.itb_walker_cache.tags.totalRefs            0                       # Total number of references to valid blocks. (Count)
system.cpu.itb_walker_cache.tags.sampledRefs            0                       # Sample count of references to valid blocks. (Count)
system.cpu.itb_walker_cache.tags.avgRefs          nan                       # Average number of references to valid blocks. ((Count/Count))
system.cpu.itb_walker_cache.tags.warmupTick            0                       # The tick when the warmup percentage was hit. (Tick)
system.cpu.itb_walker_cache.tags.tagAccesses            0                       # Number of tag accesses (Count)
system.cpu.itb_walker_cache.tags.dataAccesses            0                       # Number of data accesses (Count)
system.cpu.itb_walker_cache.tags.power_state.pwrStateResidencyTicks::UNDEFINED 6472384832500                       # Cumulative time (in ticks) in various power states (Tick)
system.cpu.mmu.dtb.rdAccesses               468055840                       # TLB accesses on read requests (Count)
system.cpu.mmu.dtb.wrAccesses                17926239                       # TLB accesses on write requests (Count)
system.cpu.mmu.dtb.rdMisses                    198491                       # TLB misses on read requests (Count)
system.cpu.mmu.dtb.wrMisses                     29730                       # TLB misses on write requests (Count)
system.cpu.mmu.dtb.walker.power_state.pwrStateResidencyTicks::UNDEFINED 6472384832500                       # Cumulative time (in ticks) in various power states (Tick)
system.cpu.mmu.itb.rdAccesses                       0                       # TLB accesses on read requests (Count)
system.cpu.mmu.itb.wrAccesses              2924295106                       # TLB accesses on write requests (Count)
system.cpu.mmu.itb.rdMisses                         0                       # TLB misses on read requests (Count)
system.cpu.mmu.itb.wrMisses                      2294                       # TLB misses on write requests (Count)
system.cpu.mmu.itb.walker.power_state.pwrStateResidencyTicks::UNDEFINED 6472384832500                       # Cumulative time (in ticks) in various power states (Tick)
system.cpu.power_state.pwrStateResidencyTicks::ON 6472384832500                       # Cumulative time (in ticks) in various power states (Tick)
system.cpu.thread_0.numInsts                        0                       # Number of Instructions committed (Count)
system.cpu.thread_0.numOps                          0                       # Number of Ops committed (Count)
system.cpu.thread_0.numMemRefs                      0                       # Number of Memory References (Count)
system.cpu.workload.numSyscalls                   208                       # Number of system calls (Count)
system.cpu_clk_domain.clock                       500                       # Clock period in ticks (Tick)
system.cpu_voltage_domain.voltage                   1                       # Voltage in Volts (Volt)
system.l2.demandHits::cpu.inst                   4053                       # number of demand (read+write) hits (Count)
system.l2.demandHits::cpu.data               14561590                       # number of demand (read+write) hits (Count)
system.l2.demandHits::total                  14565643                       # number of demand (read+write) hits (Count)
system.l2.overallHits::cpu.inst                  4053                       # number of overall hits (Count)
system.l2.overallHits::cpu.data              14561590                       # number of overall hits (Count)
system.l2.overallHits::total                 14565643                       # number of overall hits (Count)
system.l2.demandMisses::cpu.inst                10016                       # number of demand (read+write) misses (Count)
system.l2.demandMisses::cpu.data             13412231                       # number of demand (read+write) misses (Count)
system.l2.demandMisses::total                13422247                       # number of demand (read+write) misses (Count)
system.l2.overallMisses::cpu.inst               10016                       # number of overall misses (Count)
system.l2.overallMisses::cpu.data            13412231                       # number of overall misses (Count)
system.l2.overallMisses::total               13422247                       # number of overall misses (Count)
system.l2.demandMissLatency::cpu.inst      3749423000                       # number of demand (read+write) miss ticks (Tick)
system.l2.demandMissLatency::cpu.data    2863627420000                       # number of demand (read+write) miss ticks (Tick)
system.l2.demandMissLatency::total       2867376843000                       # number of demand (read+write) miss ticks (Tick)
system.l2.overallMissLatency::cpu.inst     3749423000                       # number of overall miss ticks (Tick)
system.l2.overallMissLatency::cpu.data   2863627420000                       # number of overall miss ticks (Tick)
system.l2.overallMissLatency::total      2867376843000                       # number of overall miss ticks (Tick)
system.l2.demandAccesses::cpu.inst              14069                       # number of demand (read+write) accesses (Count)
system.l2.demandAccesses::cpu.data           27973821                       # number of demand (read+write) accesses (Count)
system.l2.demandAccesses::total              27987890                       # number of demand (read+write) accesses (Count)
system.l2.overallAccesses::cpu.inst             14069                       # number of overall (read+write) accesses (Count)
system.l2.overallAccesses::cpu.data          27973821                       # number of overall (read+write) accesses (Count)
system.l2.overallAccesses::total             27987890                       # number of overall (read+write) accesses (Count)
system.l2.demandMissRate::cpu.inst           0.711920                       # miss rate for demand accesses (Ratio)
system.l2.demandMissRate::cpu.data           0.479457                       # miss rate for demand accesses (Ratio)
system.l2.demandMissRate::total              0.479573                       # miss rate for demand accesses (Ratio)
system.l2.overallMissRate::cpu.inst          0.711920                       # miss rate for overall accesses (Ratio)
system.l2.overallMissRate::cpu.data          0.479457                       # miss rate for overall accesses (Ratio)
system.l2.overallMissRate::total             0.479573                       # miss rate for overall accesses (Ratio)
system.l2.demandAvgMissLatency::cpu.inst 374343.350639                       # average overall miss latency in ticks ((Tick/Count))
system.l2.demandAvgMissLatency::cpu.data 213508.656390                       # average overall miss latency in ticks ((Tick/Count))
system.l2.demandAvgMissLatency::total    213628.675065                       # average overall miss latency in ticks ((Tick/Count))
system.l2.overallAvgMissLatency::cpu.inst 374343.350639                       # average overall miss latency ((Tick/Count))
system.l2.overallAvgMissLatency::cpu.data 213508.656390                       # average overall miss latency ((Tick/Count))
system.l2.overallAvgMissLatency::total   213628.675065                       # average overall miss latency ((Tick/Count))
system.l2.blockedCycles::no_mshrs                   0                       # number of cycles access was blocked (Cycle)
system.l2.blockedCycles::no_targets                 0                       # number of cycles access was blocked (Cycle)
system.l2.blockedCauses::no_mshrs                   0                       # number of times access was blocked (Count)
system.l2.blockedCauses::no_targets                 0                       # number of times access was blocked (Count)
system.l2.avgBlocked::no_mshrs                    nan                       # average number of cycles each access was blocked ((Cycle/Count))
system.l2.avgBlocked::no_targets                  nan                       # average number of cycles each access was blocked ((Cycle/Count))
system.l2.writebacks::writebacks              1251052                       # number of writebacks (Count)
system.l2.writebacks::total                   1251052                       # number of writebacks (Count)
system.l2.demandMshrMisses::cpu.inst            10016                       # number of demand (read+write) MSHR misses (Count)
system.l2.demandMshrMisses::cpu.data         13412231                       # number of demand (read+write) MSHR misses (Count)
system.l2.demandMshrMisses::total            13422247                       # number of demand (read+write) MSHR misses (Count)
system.l2.overallMshrMisses::cpu.inst           10016                       # number of overall MSHR misses (Count)
system.l2.overallMshrMisses::cpu.data        13412231                       # number of overall MSHR misses (Count)
system.l2.overallMshrMisses::total           13422247                       # number of overall MSHR misses (Count)
system.l2.demandMshrMissLatency::cpu.inst   3649263000                       # number of demand (read+write) MSHR miss ticks (Tick)
system.l2.demandMshrMissLatency::cpu.data 2729505110000                       # number of demand (read+write) MSHR miss ticks (Tick)
system.l2.demandMshrMissLatency::total   2733154373000                       # number of demand (read+write) MSHR miss ticks (Tick)
system.l2.overallMshrMissLatency::cpu.inst   3649263000                       # number of overall MSHR miss ticks (Tick)
system.l2.overallMshrMissLatency::cpu.data 2729505110000                       # number of overall MSHR miss ticks (Tick)
system.l2.overallMshrMissLatency::total  2733154373000                       # number of overall MSHR miss ticks (Tick)
system.l2.demandMshrMissRate::cpu.inst       0.711920                       # mshr miss ratio for demand accesses (Ratio)
system.l2.demandMshrMissRate::cpu.data       0.479457                       # mshr miss ratio for demand accesses (Ratio)
system.l2.demandMshrMissRate::total          0.479573                       # mshr miss ratio for demand accesses (Ratio)
system.l2.overallMshrMissRate::cpu.inst      0.711920                       # mshr miss ratio for overall accesses (Ratio)
system.l2.overallMshrMissRate::cpu.data      0.479457                       # mshr miss ratio for overall accesses (Ratio)
system.l2.overallMshrMissRate::total         0.479573                       # mshr miss ratio for overall accesses (Ratio)
system.l2.demandAvgMshrMissLatency::cpu.inst 364343.350639                       # average overall mshr miss latency ((Tick/Count))
system.l2.demandAvgMshrMissLatency::cpu.data 203508.656390                       # average overall mshr miss latency ((Tick/Count))
system.l2.demandAvgMshrMissLatency::total 203628.675065                       # average overall mshr miss latency ((Tick/Count))
system.l2.overallAvgMshrMissLatency::cpu.inst 364343.350639                       # average overall mshr miss latency ((Tick/Count))
system.l2.overallAvgMshrMissLatency::cpu.data 203508.656390                       # average overall mshr miss latency ((Tick/Count))
system.l2.overallAvgMshrMissLatency::total 203628.675065                       # average overall mshr miss latency ((Tick/Count))
system.l2.replacements                       13422001                       # number of replacements (Count)
system.l2.CleanEvict.mshrMisses::writebacks        66410                       # number of CleanEvict MSHR misses (Count)
system.l2.CleanEvict.mshrMisses::total          66410                       # number of CleanEvict MSHR misses (Count)
system.l2.CleanEvict.mshrMissRate::writebacks          inf                       # mshr miss rate for CleanEvict accesses (Ratio)
system.l2.CleanEvict.mshrMissRate::total          inf                       # mshr miss rate for CleanEvict accesses (Ratio)
system.l2.ReadCleanReq.hits::cpu.inst            4053                       # number of ReadCleanReq hits (Count)
system.l2.ReadCleanReq.hits::total               4053                       # number of ReadCleanReq hits (Count)
system.l2.ReadCleanReq.misses::cpu.inst         10016                       # number of ReadCleanReq misses (Count)
system.l2.ReadCleanReq.misses::total            10016                       # number of ReadCleanReq misses (Count)
system.l2.ReadCleanReq.missLatency::cpu.inst   3749423000                       # number of ReadCleanReq miss ticks (Tick)
system.l2.ReadCleanReq.missLatency::total   3749423000                       # number of ReadCleanReq miss ticks (Tick)
system.l2.ReadCleanReq.accesses::cpu.inst        14069                       # number of ReadCleanReq accesses(hits+misses) (Count)
system.l2.ReadCleanReq.accesses::total          14069                       # number of ReadCleanReq accesses(hits+misses) (Count)
system.l2.ReadCleanReq.missRate::cpu.inst     0.711920                       # miss rate for ReadCleanReq accesses (Ratio)
system.l2.ReadCleanReq.missRate::total       0.711920                       # miss rate for ReadCleanReq accesses (Ratio)
system.l2.ReadCleanReq.avgMissLatency::cpu.inst 374343.350639                       # average ReadCleanReq miss latency ((Tick/Count))
system.l2.ReadCleanReq.avgMissLatency::total 374343.350639                       # average ReadCleanReq miss latency ((Tick/Count))
system.l2.ReadCleanReq.mshrMisses::cpu.inst        10016                       # number of ReadCleanReq MSHR misses (Count)
system.l2.ReadCleanReq.mshrMisses::total        10016                       # number of ReadCleanReq MSHR misses (Count)
system.l2.ReadCleanReq.mshrMissLatency::cpu.inst   3649263000                       # number of ReadCleanReq MSHR miss ticks (Tick)
system.l2.ReadCleanReq.mshrMissLatency::total   3649263000                       # number of ReadCleanReq MSHR miss ticks (Tick)
system.l2.ReadCleanReq.mshrMissRate::cpu.inst     0.711920                       # mshr miss rate for ReadCleanReq accesses (Ratio)
system.l2.ReadCleanReq.mshrMissRate::total     0.711920                       # mshr miss rate for ReadCleanReq accesses (Ratio)
system.l2.ReadCleanReq.avgMshrMissLatency::cpu.inst 364343.350639                       # average ReadCleanReq mshr miss latency ((Tick/Count))
system.l2.ReadCleanReq.avgMshrMissLatency::total 364343.350639                       # average ReadCleanReq mshr miss latency ((Tick/Count))
system.l2.ReadExReq.hits::cpu.data              20286                       # number of ReadExReq hits (Count)
system.l2.ReadExReq.hits::total                 20286                       # number of ReadExReq hits (Count)
system.l2.ReadExReq.misses::cpu.data          1245365                       # number of ReadExReq misses (Count)
system.l2.ReadExReq.misses::total             1245365                       # number of ReadExReq misses (Count)
system.l2.ReadExReq.missLatency::cpu.data 583959827000                       # number of ReadExReq miss ticks (Tick)
system.l2.ReadExReq.missLatency::total   583959827000                       # number of ReadExReq miss ticks (Tick)
system.l2.ReadExReq.accesses::cpu.data        1265651                       # number of ReadExReq accesses(hits+misses) (Count)
system.l2.ReadExReq.accesses::total           1265651                       # number of ReadExReq accesses(hits+misses) (Count)
system.l2.ReadExReq.missRate::cpu.data       0.983972                       # miss rate for ReadExReq accesses (Ratio)
system.l2.ReadExReq.missRate::total          0.983972                       # miss rate for ReadExReq accesses (Ratio)
system.l2.ReadExReq.avgMissLatency::cpu.data 468906.567151                       # average ReadExReq miss latency ((Tick/Count))
system.l2.ReadExReq.avgMissLatency::total 468906.567151                       # average ReadExReq miss latency ((Tick/Count))
system.l2.ReadExReq.mshrMisses::cpu.data      1245365                       # number of ReadExReq MSHR misses (Count)
system.l2.ReadExReq.mshrMisses::total         1245365                       # number of ReadExReq MSHR misses (Count)
system.l2.ReadExReq.mshrMissLatency::cpu.data 571506177000                       # number of ReadExReq MSHR miss ticks (Tick)
system.l2.ReadExReq.mshrMissLatency::total 571506177000                       # number of ReadExReq MSHR miss ticks (Tick)
system.l2.ReadExReq.mshrMissRate::cpu.data     0.983972                       # mshr miss rate for ReadExReq accesses (Ratio)
system.l2.ReadExReq.mshrMissRate::total      0.983972                       # mshr miss rate for ReadExReq accesses (Ratio)
system.l2.ReadExReq.avgMshrMissLatency::cpu.data 458906.567151                       # average ReadExReq mshr miss latency ((Tick/Count))
system.l2.ReadExReq.avgMshrMissLatency::total 458906.567151                       # average ReadExReq mshr miss latency ((Tick/Count))
system.l2.ReadSharedReq.hits::cpu.data       14541304                       # number of ReadSharedReq hits (Count)
system.l2.ReadSharedReq.hits::total          14541304                       # number of ReadSharedReq hits (Count)
system.l2.ReadSharedReq.misses::cpu.data     12166866                       # number of ReadSharedReq misses (Count)
system.l2.ReadSharedReq.misses::total        12166866                       # number of ReadSharedReq misses (Count)
system.l2.ReadSharedReq.missLatency::cpu.data 2279667593000                       # number of ReadSharedReq miss ticks (Tick)
system.l2.ReadSharedReq.missLatency::total 2279667593000                       # number of ReadSharedReq miss ticks (Tick)
system.l2.ReadSharedReq.accesses::cpu.data     26708170                       # number of ReadSharedReq accesses(hits+misses) (Count)
system.l2.ReadSharedReq.accesses::total      26708170                       # number of ReadSharedReq accesses(hits+misses) (Count)
system.l2.ReadSharedReq.missRate::cpu.data     0.455548                       # miss rate for ReadSharedReq accesses (Ratio)
system.l2.ReadSharedReq.missRate::total      0.455548                       # miss rate for ReadSharedReq accesses (Ratio)
system.l2.ReadSharedReq.avgMissLatency::cpu.data 187366.869414                       # average ReadSharedReq miss latency ((Tick/Count))
system.l2.ReadSharedReq.avgMissLatency::total 187366.869414                       # average ReadSharedReq miss latency ((Tick/Count))
system.l2.ReadSharedReq.mshrMisses::cpu.data     12166866                       # number of ReadSharedReq MSHR misses (Count)
system.l2.ReadSharedReq.mshrMisses::total     12166866                       # number of ReadSharedReq MSHR misses (Count)
system.l2.ReadSharedReq.mshrMissLatency::cpu.data 2157998933000                       # number of ReadSharedReq MSHR miss ticks (Tick)
system.l2.ReadSharedReq.mshrMissLatency::total 2157998933000                       # number of ReadSharedReq MSHR miss ticks (Tick)
system.l2.ReadSharedReq.mshrMissRate::cpu.data     0.455548                       # mshr miss rate for ReadSharedReq accesses (Ratio)
system.l2.ReadSharedReq.mshrMissRate::total     0.455548                       # mshr miss rate for ReadSharedReq accesses (Ratio)
system.l2.ReadSharedReq.avgMshrMissLatency::cpu.data 177366.869414                       # average ReadSharedReq mshr miss latency ((Tick/Count))
system.l2.ReadSharedReq.avgMshrMissLatency::total 177366.869414                       # average ReadSharedReq mshr miss latency ((Tick/Count))
system.l2.WritebackClean.hits::writebacks        13557                       # number of WritebackClean hits (Count)
system.l2.WritebackClean.hits::total            13557                       # number of WritebackClean hits (Count)
system.l2.WritebackClean.accesses::writebacks        13557                       # number of WritebackClean accesses(hits+misses) (Count)
system.l2.WritebackClean.accesses::total        13557                       # number of WritebackClean accesses(hits+misses) (Count)
system.l2.WritebackDirty.hits::writebacks      1338194                       # number of WritebackDirty hits (Count)
system.l2.WritebackDirty.hits::total          1338194                       # number of WritebackDirty hits (Count)
system.l2.WritebackDirty.accesses::writebacks      1338194                       # number of WritebackDirty accesses(hits+misses) (Count)
system.l2.WritebackDirty.accesses::total      1338194                       # number of WritebackDirty accesses(hits+misses) (Count)
system.l2.power_state.pwrStateResidencyTicks::UNDEFINED 6472384832500                       # Cumulative time (in ticks) in various power states (Tick)
system.l2.tags.tagsInUse                  4095.434245                       # Average ticks per tags in use ((Tick/Count))
system.l2.tags.totalRefs                     55908346                       # Total number of references to valid blocks. (Count)
system.l2.tags.sampledRefs                   13426097                       # Sample count of references to valid blocks. (Count)
system.l2.tags.avgRefs                       4.164155                       # Average number of references to valid blocks. ((Count/Count))
system.l2.tags.warmupTick                      374000                       # The tick when the warmup percentage was hit. (Tick)
system.l2.tags.occupancies::writebacks       2.342831                       # Average occupied blocks per tick, per requestor ((Count/Tick))
system.l2.tags.occupancies::cpu.inst         5.362430                       # Average occupied blocks per tick, per requestor ((Count/Tick))
system.l2.tags.occupancies::cpu.data      4087.728984                       # Average occupied blocks per tick, per requestor ((Count/Tick))
system.l2.tags.avgOccs::writebacks           0.000572                       # Average percentage of cache occupancy ((Ratio/Tick))
system.l2.tags.avgOccs::cpu.inst             0.001309                       # Average percentage of cache occupancy ((Ratio/Tick))
system.l2.tags.avgOccs::cpu.data             0.997981                       # Average percentage of cache occupancy ((Ratio/Tick))
system.l2.tags.avgOccs::total                0.999862                       # Average percentage of cache occupancy ((Ratio/Tick))
system.l2.tags.occupanciesTaskId::1024           4096                       # Occupied blocks per task id (Count)
system.l2.tags.ageTaskId_1024::0                   38                       # Occupied blocks per task id, per block age (Count)
system.l2.tags.ageTaskId_1024::1                  264                       # Occupied blocks per task id, per block age (Count)
system.l2.tags.ageTaskId_1024::2                 1996                       # Occupied blocks per task id, per block age (Count)
system.l2.tags.ageTaskId_1024::3                 1798                       # Occupied blocks per task id, per block age (Count)
system.l2.tags.ratioOccsTaskId::1024                1                       # Ratio of occupied blocks and all blocks, per task id (Ratio)
system.l2.tags.tagAccesses                  461224145                       # Number of tag accesses (Count)
system.l2.tags.dataAccesses                 461224145                       # Number of data accesses (Count)
system.l2.tags.power_state.pwrStateResidencyTicks::UNDEFINED 6472384832500                       # Cumulative time (in ticks) in various power states (Tick)
system.mem_ctrls.avgPriority_writebacks::samples   1249970.00                       # Average QoS priority value for accepted requests (Count)
system.mem_ctrls.avgPriority_cpu.inst::samples     10016.00                       # Average QoS priority value for accepted requests (Count)
system.mem_ctrls.avgPriority_cpu.data::samples  13409033.00                       # Average QoS priority value for accepted requests (Count)
system.mem_ctrls.priorityMinLatency      0.000000017492                       # per QoS priority minimum request to response latency (Second)
system.mem_ctrls.priorityMaxLatency      0.020001031492                       # per QoS priority maximum request to response latency (Second)
system.mem_ctrls.numReadWriteTurnArounds        75001                       # Number of turnarounds from READ to WRITE (Count)
system.mem_ctrls.numWriteReadTurnArounds        75001                       # Number of turnarounds from WRITE to READ (Count)
system.mem_ctrls.numStayReadState            42707542                       # Number of times bus staying in READ state (Count)
system.mem_ctrls.numStayWriteState            1174915                       # Number of times bus staying in WRITE state (Count)
system.mem_ctrls.readReqs                    13422247                       # Number of read requests accepted (Count)
system.mem_ctrls.writeReqs                    1251052                       # Number of write requests accepted (Count)
system.mem_ctrls.readBursts                  13422247                       # Number of controller read bursts, including those serviced by the write queue (Count)
system.mem_ctrls.writeBursts                  1251052                       # Number of controller write bursts, including those merged in the write queue (Count)
system.mem_ctrls.servicedByWrQ                   3198                       # Number of controller read bursts serviced by the write queue (Count)
system.mem_ctrls.mergedWrBursts                  1082                       # Number of controller write bursts merged with an existing one (Count)
system.mem_ctrls.neitherReadNorWriteReqs            0                       # Number of requests that are neither read nor write (Count)
system.mem_ctrls.avgRdQLen                       1.00                       # Average read queue length when enqueuing ((Count/Tick))
system.mem_ctrls.avgWrQLen                      57.09                       # Average write queue length when enqueuing ((Count/Tick))
system.mem_ctrls.numRdRetry                         0                       # Number of times read queue was full causing retry (Count)
system.mem_ctrls.numWrRetry                         0                       # Number of times write queue was full causing retry (Count)
system.mem_ctrls.readPktSize::0                     0                       # Read request sizes (log2) (Count)
system.mem_ctrls.readPktSize::1                     0                       # Read request sizes (log2) (Count)
system.mem_ctrls.readPktSize::2                     0                       # Read request sizes (log2) (Count)
system.mem_ctrls.readPktSize::3                     0                       # Read request sizes (log2) (Count)
system.mem_ctrls.readPktSize::4                     0                       # Read request sizes (log2) (Count)
system.mem_ctrls.readPktSize::5                     0                       # Read request sizes (log2) (Count)
system.mem_ctrls.readPktSize::6              13422247                       # Read request sizes (log2) (Count)
system.mem_ctrls.writePktSize::0                    0                       # Write request sizes (log2) (Count)
system.mem_ctrls.writePktSize::1                    0                       # Write request sizes (log2) (Count)
system.mem_ctrls.writePktSize::2                    0                       # Write request sizes (log2) (Count)
system.mem_ctrls.writePktSize::3                    0                       # Write request sizes (log2) (Count)
system.mem_ctrls.writePktSize::4                    0                       # Write request sizes (log2) (Count)
system.mem_ctrls.writePktSize::5                    0                       # Write request sizes (log2) (Count)
system.mem_ctrls.writePktSize::6              1251052                       # Write request sizes (log2) (Count)
system.mem_ctrls.rdQLenPdf::0                13418881                       # What read queue length does an incoming req see (Count)
system.mem_ctrls.rdQLenPdf::1                     168                       # What read queue length does an incoming req see (Count)
system.mem_ctrls.rdQLenPdf::2                       0                       # What read queue length does an incoming req see (Count)
system.mem_ctrls.rdQLenPdf::3                       0                       # What read queue length does an incoming req see (Count)
system.mem_ctrls.rdQLenPdf::4                       0                       # What read queue length does an incoming req see (Count)
system.mem_ctrls.rdQLenPdf::5                       0                       # What read queue length does an incoming req see (Count)
system.mem_ctrls.rdQLenPdf::6                       0                       # What read queue length does an incoming req see (Count)
system.mem_ctrls.rdQLenPdf::7                       0                       # What read queue length does an incoming req see (Count)
system.mem_ctrls.rdQLenPdf::8                       0                       # What read queue length does an incoming req see (Count)
system.mem_ctrls.rdQLenPdf::9                       0                       # What read queue length does an incoming req see (Count)
system.mem_ctrls.rdQLenPdf::10                      0                       # What read queue length does an incoming req see (Count)
system.mem_ctrls.rdQLenPdf::11                      0                       # What read queue length does an incoming req see (Count)
[...]
system.mem_ctrls.dram.numReads::cpu.inst        10016                       # Number of read requests responded to by this memory (Count)
system.mem_ctrls.dram.numReads::cpu.data     13412231                       # Number of read requests responded to by this memory (Count)
system.mem_ctrls.dram.numReads::total        13422247                       # Number of read requests responded to by this memory (Count)
system.mem_ctrls.dram.numWrites::writebacks      1251052                       # Number of write requests responded to by this memory (Count)
system.mem_ctrls.dram.numWrites::total        1251052                       # Number of write requests responded to by this memory (Count)
system.mem_ctrls.dram.bwRead::cpu.inst          99040                       # Total read bandwidth from this memory ((Byte/Second))
system.mem_ctrls.dram.bwRead::cpu.data      132622334                       # Total read bandwidth from this memory ((Byte/Second))
system.mem_ctrls.dram.bwRead::total         132721374                       # Total read bandwidth from this memory ((Byte/Second))
system.mem_ctrls.dram.bwInstRead::cpu.inst        99040                       # Instruction read bandwidth from this memory ((Byte/Second))
system.mem_ctrls.dram.bwInstRead::total         99040                       # Instruction read bandwidth from this memory ((Byte/Second))
system.mem_ctrls.dram.bwWrite::writebacks     12370607                       # Write bandwidth from this memory ((Byte/Second))
system.mem_ctrls.dram.bwWrite::total         12370607                       # Write bandwidth from this memory ((Byte/Second))
system.mem_ctrls.dram.bwTotal::writebacks     12370607                       # Total bandwidth to/from this memory ((Byte/Second))
system.mem_ctrls.dram.bwTotal::cpu.inst         99040                       # Total bandwidth to/from this memory ((Byte/Second))
system.mem_ctrls.dram.bwTotal::cpu.data     132622334                       # Total bandwidth to/from this memory ((Byte/Second))
system.mem_ctrls.dram.bwTotal::total        145091981                       # Total bandwidth to/from this memory ((Byte/Second))
system.mem_ctrls.dram.readBursts             13419049                       # Number of NVM read bursts (Count)
system.mem_ctrls.dram.writeBursts             1249916                       # Number of NVM write bursts (Count)
system.mem_ctrls.dram.perBankRdBursts        13419049                       # Per bank write bursts (Count)
system.mem_ctrls.dram.perBankWrBursts         1249916                       # Per bank write bursts (Count)
system.mem_ctrls.dram.totQLat            1949829660255                       # Total ticks spent queuing (Tick)
system.mem_ctrls.dram.totBusLat           44712271268                       # Total ticks spent in databus transfers (Tick)
system.mem_ctrls.dram.totMemAccLat       2184555665363                       # Total ticks spent from burst creation until serviced by the NVM (Tick)
system.mem_ctrls.dram.avgQLat               145303.12                       # Average queueing delay per NVM burst ((Tick/Count))
system.mem_ctrls.dram.avgBusLat               3332.00                       # Average bus latency per NVM burst ((Tick/Count))
system.mem_ctrls.dram.avgMemAccLat          162795.12                       # Average memory access latency per NVM burst ((Tick/Count))
system.mem_ctrls.dram.avgRdBW                  132.69                       # Average DRAM read bandwidth in MiBytes/s ((Byte/Second))
system.mem_ctrls.dram.avgWrBW                   12.36                       # Average DRAM write bandwidth in MiBytes/s ((Byte/Second))
system.mem_ctrls.dram.peakBW                 19207.00                       # Theoretical peak bandwidth in MiByte/s ((Byte/Second))
system.mem_ctrls.dram.busUtil                    0.76                       # NVM Data bus utilization in percentage (Ratio)
system.mem_ctrls.dram.busUtilRead                0.69                       # NVM Data bus read utilization in percentage (Ratio)
system.mem_ctrls.dram.busUtilWrite               0.06                       # NVM Data bus write utilization in percentage (Ratio)
system.mem_ctrls.dram.pendingReads::samples     13419049                       # Reads issued to NVM for which data has not been transferred (Count)
system.mem_ctrls.dram.pendingReads::mean     0.000009                       # Reads issued to NVM for which data has not been transferred (Count)
system.mem_ctrls.dram.pendingReads::stdev     0.003076                       # Reads issued to NVM for which data has not been transferred (Count)
system.mem_ctrls.dram.pendingReads::0        13418922    100.00%    100.00% # Reads issued to NVM for which data has not been transferred (Count)
system.mem_ctrls.dram.pendingReads::1             127      0.00%    100.00% # Reads issued to NVM for which data has not been transferred (Count)
system.mem_ctrls.dram.pendingReads::total     13419049                       # Reads issued to NVM for which data has not been transferred (Count)
system.mem_ctrls.dram.pendingWrites::samples      1249916                       # Number of outstanding writes to NVM (Count)
system.mem_ctrls.dram.pendingWrites::mean     8.859342                       # Number of outstanding writes to NVM (Count)
system.mem_ctrls.dram.pendingWrites::gmean     7.061887                       # Number of outstanding writes to NVM (Count)
system.mem_ctrls.dram.pendingWrites::stdev     4.849432                       # Number of outstanding writes to NVM (Count)
system.mem_ctrls.dram.pendingWrites::1          75001      6.00%      6.00% # Number of outstanding writes to NVM (Count)
system.mem_ctrls.dram.pendingWrites::2          75001      6.00%     12.00% # Number of outstanding writes to NVM (Count)
system.mem_ctrls.dram.pendingWrites::3          75001      6.00%     18.00% # Number of outstanding writes to NVM (Count)
system.mem_ctrls.dram.pendingWrites::4          75001      6.00%     24.00% # Number of outstanding writes to NVM (Count)
system.mem_ctrls.dram.pendingWrites::5          75001      6.00%     30.00% # Number of outstanding writes to NVM (Count)
system.mem_ctrls.dram.pendingWrites::6          75001      6.00%     36.00% # Number of outstanding writes to NVM (Count)
system.mem_ctrls.dram.pendingWrites::7          75001      6.00%     42.00% # Number of outstanding writes to NVM (Count)
system.mem_ctrls.dram.pendingWrites::8          75001      6.00%     48.00% # Number of outstanding writes to NVM (Count)
system.mem_ctrls.dram.pendingWrites::9          75001      6.00%     54.00% # Number of outstanding writes to NVM (Count)
system.mem_ctrls.dram.pendingWrites::10         75001      6.00%     60.00% # Number of outstanding writes to NVM (Count)
system.mem_ctrls.dram.pendingWrites::11         75001      6.00%     66.01% # Number of outstanding writes to NVM (Count)
system.mem_ctrls.dram.pendingWrites::12         75001      6.00%     72.01% # Number of outstanding writes to NVM (Count)
system.mem_ctrls.dram.pendingWrites::13         75001      6.00%     78.01% # Number of outstanding writes to NVM (Count)
system.mem_ctrls.dram.pendingWrites::14         75001      6.00%     84.01% # Number of outstanding writes to NVM (Count)
system.mem_ctrls.dram.pendingWrites::15         75001      6.00%     90.01% # Number of outstanding writes to NVM (Count)
system.mem_ctrls.dram.pendingWrites::16         75001      6.00%     96.01% # Number of outstanding writes to NVM (Count)
system.mem_ctrls.dram.pendingWrites::17         24939      2.00%     98.00% # Number of outstanding writes to NVM (Count)
system.mem_ctrls.dram.pendingWrites::18         24926      1.99%    100.00% # Number of outstanding writes to NVM (Count)
system.mem_ctrls.dram.pendingWrites::19            34      0.00%    100.00% # Number of outstanding writes to NVM (Count)
system.mem_ctrls.dram.pendingWrites::20             1      0.00%    100.00% # Number of outstanding writes to NVM (Count)
system.mem_ctrls.dram.pendingWrites::total      1249916                       # Number of outstanding writes to NVM (Count)
system.mem_ctrls.dram.bytesPerBank::samples      5947188                       # Bytes read within a bank before loading new bank (Byte)
system.mem_ctrls.dram.bytesPerBank::mean   157.858430                       # Bytes read within a bank before loading new bank (Byte)
system.mem_ctrls.dram.bytesPerBank::gmean   127.405302                       # Bytes read within a bank before loading new bank (Byte)
system.mem_ctrls.dram.bytesPerBank::stdev    93.784555                       # Bytes read within a bank before loading new bank (Byte)
system.mem_ctrls.dram.bytesPerBank::64-65      2870981     48.27%     48.27% # Bytes read within a bank before loading new bank (Byte)
system.mem_ctrls.dram.bytesPerBank::128-129       204931      3.45%     51.72% # Bytes read within a bank before loading new bank (Byte)
system.mem_ctrls.dram.bytesPerBank::192-193        96982      1.63%     53.35% # Bytes read within a bank before loading new bank (Byte)
system.mem_ctrls.dram.bytesPerBank::256-257      2774294     46.65%    100.00% # Bytes read within a bank before loading new bank (Byte)
system.mem_ctrls.dram.bytesPerBank::total      5947188                       # Bytes read within a bank before loading new bank (Byte)
system.mem_ctrls.dram.power_state.pwrStateResidencyTicks::UNDEFINED 6472384832500                       # Cumulative time (in ticks) in various power states (Tick)
system.mem_ctrls.power_state.pwrStateResidencyTicks::UNDEFINED 6472384832500                       # Cumulative time (in ticks) in various power states (Tick)
system.membus.transDist::ReadResp            12176882                       # Transaction distribution (Count)
system.membus.transDist::WritebackDirty       1251052                       # Transaction distribution (Count)
system.membus.transDist::CleanEvict          12167006                       # Transaction distribution (Count)
system.membus.transDist::ReadExReq            1245365                       # Transaction distribution (Count)
system.membus.transDist::ReadExResp           1245365                       # Transaction distribution (Count)
system.membus.transDist::ReadSharedReq       12176882                       # Transaction distribution (Count)
system.membus.pktCount_system.l2.mem_side_port::system.mem_ctrls.port     40262552                       # Packet count per connected requestor and responder (Count)
system.membus.pktCount_system.l2.mem_side_port::total     40262552                       # Packet count per connected requestor and responder (Count)
system.membus.pktCount::total                40262552                       # Packet count per connected requestor and responder (Count)
system.membus.pktSize_system.l2.mem_side_port::system.mem_ctrls.port    939091136                       # Cumulative packet size per connected requestor and responder (Byte)
system.membus.pktSize_system.l2.mem_side_port::total    939091136                       # Cumulative packet size per connected requestor and responder (Byte)
system.membus.pktSize::total                939091136                       # Cumulative packet size per connected requestor and responder (Byte)
system.membus.snoops                                0                       # Total snoops (Count)
system.membus.snoopTraffic                          0                       # Total snoop traffic (Byte)
system.membus.snoopFanout::samples           13422247                       # Request fanout histogram (Count)
system.membus.snoopFanout::mean                     0                       # Request fanout histogram (Count)
system.membus.snoopFanout::stdev                    0                       # Request fanout histogram (Count)
system.membus.snoopFanout::underflows               0      0.00%      0.00% # Request fanout histogram (Count)
system.membus.snoopFanout::0                 13422247    100.00%    100.00% # Request fanout histogram (Count)
system.membus.snoopFanout::1                        0      0.00%    100.00% # Request fanout histogram (Count)
system.membus.snoopFanout::overflows                0      0.00%    100.00% # Request fanout histogram (Count)
system.membus.snoopFanout::min_value                0                       # Request fanout histogram (Count)
system.membus.snoopFanout::max_value                0                       # Request fanout histogram (Count)
system.membus.snoopFanout::total             13422247                       # Request fanout histogram (Count)
system.membus.power_state.pwrStateResidencyTicks::UNDEFINED 6472384832500                       # Cumulative time (in ticks) in various power states (Tick)
system.membus.reqLayer2.occupancy         31845409500                       # Layer occupancy (ticks) (Tick)
system.membus.reqLayer2.utilization               0.0                       # Layer utilization (Ratio)
system.membus.respLayer1.occupancy        72139441569                       # Layer occupancy (ticks) (Tick)
system.membus.respLayer1.utilization              0.0                       # Layer utilization (Ratio)
system.membus.snoop_filter.totRequests       26840305                       # Total number of requests made to the snoop filter. (Count)
system.membus.snoop_filter.hitSingleRequests     13418058                       # Number of requests hitting in the snoop filter with a single holder of the requested data. (Count)
system.membus.snoop_filter.hitMultiRequests            0                       # Number of requests hitting in the snoop filter with multiple (>1) holders of the requested data. (Count)
system.membus.snoop_filter.totSnoops                0                       # Total number of snoops made to the snoop filter. (Count)
system.membus.snoop_filter.hitSingleSnoops            0                       # Number of snoops hitting in the snoop filter with a single holder of the requested data. (Count)
system.membus.snoop_filter.hitMultiSnoops            0                       # Number of snoops hitting in the snoop filter with multiple (>1) holders of the requested data. (Count)
system.tol2bus.transDist::ReadResp           26722239                       # Transaction distribution (Count)
system.tol2bus.transDist::WritebackDirty      2589246                       # Transaction distribution (Count)
system.tol2bus.transDist::WritebackClean        13557                       # Transaction distribution (Count)
system.tol2bus.transDist::CleanEvict         38806064                       # Transaction distribution (Count)
system.tol2bus.transDist::ReadExReq           1265651                       # Transaction distribution (Count)
system.tol2bus.transDist::ReadExResp          1265651                       # Transaction distribution (Count)
system.tol2bus.transDist::ReadCleanReq          14069                       # Transaction distribution (Count)
system.tol2bus.transDist::ReadSharedReq      26708170                       # Transaction distribution (Count)
system.tol2bus.pktCount_system.cpu.icache.mem_side_port::system.l2.cpu_side_port        41695                       # Packet count per connected requestor and responder (Count)
system.tol2bus.pktCount_system.cpu.dcache.mem_side_port::system.l2.cpu_side_port     83920951                       # Packet count per connected requestor and responder (Count)
system.tol2bus.pktCount::total               83962646                       # Packet count per connected requestor and responder (Count)
system.tol2bus.pktSize_system.cpu.icache.mem_side_port::system.l2.cpu_side_port      1768064                       # Cumulative packet size per connected requestor and responder (Byte)
system.tol2bus.pktSize_system.cpu.dcache.mem_side_port::system.l2.cpu_side_port   1875968960                       # Cumulative packet size per connected requestor and responder (Byte)
system.tol2bus.pktSize::total              1877737024                       # Cumulative packet size per connected requestor and responder (Byte)
system.tol2bus.snoops                        13422001                       # Total snoops (Count)
system.tol2bus.snoopTraffic                  80067328                       # Total snoop traffic (Byte)
system.tol2bus.snoopFanout::samples          41409891                       # Request fanout histogram (Count)
system.tol2bus.snoopFanout::mean             0.001699                       # Request fanout histogram (Count)
system.tol2bus.snoopFanout::stdev            0.041183                       # Request fanout histogram (Count)
system.tol2bus.snoopFanout::underflows              0      0.00%      0.00% # Request fanout histogram (Count)
system.tol2bus.snoopFanout::0                41339538     99.83%     99.83% # Request fanout histogram (Count)
system.tol2bus.snoopFanout::1                   70353      0.17%    100.00% # Request fanout histogram (Count)
system.tol2bus.snoopFanout::2                       0      0.00%    100.00% # Request fanout histogram (Count)
system.tol2bus.snoopFanout::3                       0      0.00%    100.00% # Request fanout histogram (Count)
system.tol2bus.snoopFanout::4                       0      0.00%    100.00% # Request fanout histogram (Count)
system.tol2bus.snoopFanout::overflows               0      0.00%    100.00% # Request fanout histogram (Count)
system.tol2bus.snoopFanout::min_value               0                       # Request fanout histogram (Count)
system.tol2bus.snoopFanout::max_value               1                       # Request fanout histogram (Count)
system.tol2bus.snoopFanout::total            41409891                       # Request fanout histogram (Count)
system.tol2bus.power_state.pwrStateResidencyTicks::UNDEFINED 6472384832500                       # Cumulative time (in ticks) in various power states (Tick)
system.tol2bus.reqLayer0.occupancy        29339129000                       # Layer occupancy (ticks) (Tick)
system.tol2bus.reqLayer0.utilization              0.0                       # Layer utilization (Ratio)
system.tol2bus.respLayer0.occupancy          21103500                       # Layer occupancy (ticks) (Tick)
system.tol2bus.respLayer0.utilization             0.0                       # Layer utilization (Ratio)
system.tol2bus.respLayer1.occupancy       41960731500                       # Layer occupancy (ticks) (Tick)
system.tol2bus.respLayer1.utilization             0.0                       # Layer utilization (Ratio)
system.tol2bus.snoop_filter.totRequests      55974756                       # Total number of requests made to the snoop filter. (Count)
system.tol2bus.snoop_filter.hitSingleRequests     27986866                       # Number of requests hitting in the snoop filter with a single holder of the requested data. (Count)
system.tol2bus.snoop_filter.hitMultiRequests            0                       # Number of requests hitting in the snoop filter with multiple (>1) holders of the requested data. (Count)
system.tol2bus.snoop_filter.totSnoops           70353                       # Total number of snoops made to the snoop filter. (Count)
system.tol2bus.snoop_filter.hitSingleSnoops        70353                       # Number of snoops hitting in the snoop filter with a single holder of the requested data. (Count)
system.tol2bus.snoop_filter.hitMultiSnoops            0                       # Number of snoops hitting in the snoop filter with multiple (>1) holders of the requested data. (Count)
system.voltage_domain.voltage                       1                       # Voltage in Volts (Volt)
system.workload.inst.arm                            0                       # number of arm instructions executed (Count)
system.workload.inst.quiesce                        0                       # number of quiesce instructions executed (Count)

---------- End Simulation Statistics   ----------
